75
Lattice="12.34885046 0.0 0.0 0.0 17.20287076 0.0 0.0 0.0 55.9492585067986" Properties=species:S:1:pos:R:3 pbc="T T F"
Sr       2.79036206       2.15035884      27.93645418
O        5.89200819       6.45107654      27.36577749
Sr       5.87757467       2.15035884      31.09128854
Sr       2.79036206       2.15035884      33.94072229
Sr       3.38406317       6.45107654      28.08915448
Ce       3.08721261       4.30071769      31.01493839
O        4.93512467       8.10605016      29.81320069
O        4.32651318       3.80533247      32.81533475
O        4.93512467       4.79610291      29.81320069
O        5.89200819       6.45107654      33.37004560
O        2.80479558       6.45107654      31.66196522
O        3.36962965       2.15035884      30.36791155
Sr       5.87757467       2.15035884      37.09555665
Sr       2.79036206       2.15035884      39.94499040
Sr       3.38406317       6.45107654      34.09342259
Ce       3.08721261       4.30071769      37.01920649
O        4.93512467       8.10605016      35.81746880
O        4.32651318       3.80533247      38.81960286
O        4.93512467       4.79610291      35.81746880
O        5.89200819       6.45107654      39.37431371
O        2.80479558       6.45107654      37.66623333
O        3.36962965       2.15035884      36.37217966
Sr       3.38406317       6.45107654      40.09769070
Sr       2.79036206      10.75179422      27.93645418
Sr       5.87757467      10.75179422      31.09128854
Sr       2.79036206      10.75179422      33.94072229
Ce       3.08721261       8.60143538      31.01493839
O        4.32651318       9.09682060      32.81533475
O        3.36962965      10.75179422      30.36791155
Sr       5.87757467      10.75179422      37.09555665
Sr       2.79036206      10.75179422      39.94499040
Ce       3.08721261       8.60143538      37.01920649
O        4.32651318       9.09682060      38.81960286
O        3.36962965      10.75179422      36.37217966
Sr       8.96478729       2.15035884      27.93645418
Sr       6.47127579       6.45107654      30.93858823
Sr       8.96478729       2.15035884      33.94072229
Sr       9.55848840       6.45107654      28.08915448
Ce       9.26163784       4.30071769      31.01493839
Ce       6.17442523       4.30071769      28.01280433
O        8.02233728       8.10605016      29.21454202
O        8.02233728       4.79610291      29.21454202
O        7.41372579       3.80533247      32.21667608
O        6.45684227       2.15035884      28.65983117
O        8.97922081       6.45107654      31.66196522
O        9.54405488       2.15035884      30.36791155
Sr       6.47127579       6.45107654      36.94285634
Sr       8.96478729       2.15035884      39.94499040
Sr       9.55848840       6.45107654      34.09342259
Ce       9.26163784       4.30071769      37.01920649
Ce       6.17442523       4.30071769      34.01707244
O        8.02233728       8.10605016      35.21881013
O        8.02233728       4.79610291      35.21881013
O        7.41372579       3.80533247      38.22094419
O        6.45684227       2.15035884      34.66409928
O        8.97922081       6.45107654      37.66623333
O        9.54405488       2.15035884      36.37217966
Sr       9.55848840       6.45107654      40.09769070
Ce       6.17442523       4.30071769      40.02134055
O        6.45684227       2.15035884      40.66836739
Sr       8.96478729      10.75179422      27.93645418
Sr       8.96478729      10.75179422      33.94072229
Ce       6.17442523       8.60143538      28.01280433
Ce       9.26163784       8.60143538      31.01493839
O        7.41372579       9.09682060      32.21667608
O        6.45684227      10.75179422      28.65983117
O        9.54405488      10.75179422      30.36791155
Sr       8.96478729      10.75179422      39.94499040
Ce       6.17442523       8.60143538      34.01707244
Ce       9.26163784       8.60143538      37.01920649
O        7.41372579       9.09682060      38.22094419
O        6.45684227      10.75179422      34.66409928
O        9.54405488      10.75179422      36.37217966
Ce       6.17442523       8.60143538      40.02134055
O        6.45684227      10.75179422      40.66836739
