data_image0
_chemical_formula_structural       Sr2Ce4O12Sr3Ce4O12Sr2Ce4O8Sr2Ce4O8Sr3Ce4O12Sr4Ce4O12Sr2Ce4O8Sr2Ce4O8
_chemical_formula_sum              "Sr20 Ce32 O80"
_cell_length_a       12.0085
_cell_length_b       12.3489
_cell_length_c       36.7075
_cell_angle_alpha    90
_cell_angle_beta     90
_cell_angle_gamma    90

_space_group_name_H-M_alt    "P 1"
_space_group_IT_number       1

loop_
  _space_group_symop_operation_xyz
  'x, y, z'

loop_
  _atom_site_type_symbol
  _atom_site_label
  _atom_site_symmetry_multiplicity
  _atom_site_fract_x
  _atom_site_fract_y
  _atom_site_fract_z
  _atom_site_occupancy
  Sr  Sr1       1.0  0.25636  0.47596  0.33100  1.0000
  Sr  Sr2       1.0  0.49364  0.22596  0.33100  1.0000
  Ce  Ce1       1.0  0.00000  0.00000  0.27242  1.0000
  Ce  Ce2       1.0  0.25000  0.25000  0.27242  1.0000
  Ce  Ce3       1.0  0.25000  0.25000  0.38959  1.0000
  Ce  Ce4       1.0  0.00000  0.00000  0.38959  1.0000
  O   O1        1.0  0.35007  0.10036  0.28592  1.0000
  O   O2        1.0  0.14993  0.39964  0.49325  1.0000
  O   O3        1.0  0.10007  0.14964  0.49325  1.0000
  O   O4        1.0  0.39993  0.35036  0.28592  1.0000
  O   O5        1.0  0.39993  0.35036  0.37609  1.0000
  O   O6        1.0  0.10007  0.14964  0.40308  1.0000
  O   O7        1.0  0.14993  0.39964  0.40308  1.0000
  O   O8        1.0  0.35007  0.10036  0.37609  1.0000
  O   O9        1.0  0.05388  0.02287  0.33100  1.0000
  O   O10       1.0  0.44612  0.47713  0.44817  1.0000
  O   O11       1.0  0.30388  0.22713  0.44817  1.0000
  O   O12       1.0  0.19612  0.27287  0.33100  1.0000
  Sr  Sr3       1.0  0.75636  0.47596  0.33100  1.0000
  Sr  Sr4       1.0  0.99364  0.22596  0.33100  1.0000
  Sr  Sr5       1.0  0.50636  0.27404  0.44817  1.0000
  Ce  Ce5       1.0  0.50000  0.00000  0.27242  1.0000
  Ce  Ce6       1.0  0.75000  0.25000  0.27242  1.0000
  Ce  Ce7       1.0  0.75000  0.25000  0.38959  1.0000
  Ce  Ce8       1.0  0.50000  0.00000  0.38959  1.0000
  O   O13       1.0  0.85007  0.10036  0.28592  1.0000
  O   O14       1.0  0.64993  0.39964  0.49325  1.0000
  O   O15       1.0  0.60007  0.14964  0.49325  1.0000
  O   O16       1.0  0.89993  0.35036  0.28592  1.0000
  O   O17       1.0  0.89993  0.35036  0.37609  1.0000
  O   O18       1.0  0.60007  0.14964  0.40308  1.0000
  O   O19       1.0  0.64993  0.39964  0.40308  1.0000
  O   O20       1.0  0.85007  0.10036  0.37609  1.0000
  O   O21       1.0  0.55388  0.02287  0.33100  1.0000
  O   O22       1.0  0.94612  0.47713  0.44817  1.0000
  O   O23       1.0  0.80388  0.22713  0.44817  1.0000
  O   O24       1.0  0.69612  0.27287  0.33100  1.0000
  Sr  Sr6       1.0  0.25636  0.47596  0.56533  1.0000
  Sr  Sr7       1.0  0.49364  0.22596  0.56533  1.0000
  Ce  Ce9       1.0  0.00000  0.00000  0.50675  1.0000
  Ce  Ce10      1.0  0.25000  0.25000  0.50675  1.0000
  Ce  Ce11      1.0  0.25000  0.25000  0.62391  1.0000
  Ce  Ce12      1.0  0.00000  0.00000  0.62391  1.0000
  O   O25       1.0  0.35007  0.10036  0.52024  1.0000
  O   O26       1.0  0.39993  0.35036  0.52024  1.0000
  O   O27       1.0  0.39993  0.35036  0.61041  1.0000
  O   O28       1.0  0.10007  0.14964  0.63741  1.0000
  O   O29       1.0  0.14993  0.39964  0.63741  1.0000
  O   O30       1.0  0.35007  0.10036  0.61041  1.0000
  O   O31       1.0  0.05388  0.02287  0.56533  1.0000
  O   O32       1.0  0.19612  0.27287  0.56533  1.0000
  Sr  Sr8       1.0  0.75636  0.47596  0.56533  1.0000
  Sr  Sr9       1.0  0.99364  0.22596  0.56533  1.0000
  Ce  Ce13      1.0  0.50000  0.00000  0.50675  1.0000
  Ce  Ce14      1.0  0.75000  0.25000  0.50675  1.0000
  Ce  Ce15      1.0  0.75000  0.25000  0.62391  1.0000
  Ce  Ce16      1.0  0.50000  0.00000  0.62391  1.0000
  O   O33       1.0  0.85007  0.10036  0.52024  1.0000
  O   O34       1.0  0.89993  0.35036  0.52024  1.0000
  O   O35       1.0  0.89993  0.35036  0.61041  1.0000
  O   O36       1.0  0.60007  0.14964  0.63741  1.0000
  O   O37       1.0  0.64993  0.39964  0.63741  1.0000
  O   O38       1.0  0.85007  0.10036  0.61041  1.0000
  O   O39       1.0  0.55388  0.02287  0.56533  1.0000
  O   O40       1.0  0.69612  0.27287  0.56533  1.0000
  Sr  Sr10      1.0  0.24364  0.52404  0.44817  1.0000
  Sr  Sr11      1.0  0.25636  0.97596  0.33100  1.0000
  Sr  Sr12      1.0  0.49364  0.72596  0.33100  1.0000
  Ce  Ce17      1.0  0.00000  0.50000  0.27242  1.0000
  Ce  Ce18      1.0  0.25000  0.75000  0.27242  1.0000
  Ce  Ce19      1.0  0.25000  0.75000  0.38959  1.0000
  Ce  Ce20      1.0  0.00000  0.50000  0.38959  1.0000
  O   O41       1.0  0.35007  0.60036  0.28592  1.0000
  O   O42       1.0  0.14993  0.89964  0.49325  1.0000
  O   O43       1.0  0.10007  0.64964  0.49325  1.0000
  O   O44       1.0  0.39993  0.85036  0.28592  1.0000
  O   O45       1.0  0.39993  0.85036  0.37609  1.0000
  O   O46       1.0  0.10007  0.64964  0.40308  1.0000
  O   O47       1.0  0.14993  0.89964  0.40308  1.0000
  O   O48       1.0  0.35007  0.60036  0.37609  1.0000
  O   O49       1.0  0.05388  0.52287  0.33100  1.0000
  O   O50       1.0  0.44612  0.97713  0.44817  1.0000
  O   O51       1.0  0.30388  0.72713  0.44817  1.0000
  O   O52       1.0  0.19612  0.77287  0.33100  1.0000
  Sr  Sr13      1.0  0.74364  0.52404  0.44817  1.0000
  Sr  Sr14      1.0  0.75636  0.97596  0.33100  1.0000
  Sr  Sr15      1.0  0.99364  0.72596  0.33100  1.0000
  Sr  Sr16      1.0  0.50636  0.77404  0.44817  1.0000
  Ce  Ce21      1.0  0.50000  0.50000  0.27242  1.0000
  Ce  Ce22      1.0  0.75000  0.75000  0.27242  1.0000
  Ce  Ce23      1.0  0.75000  0.75000  0.38959  1.0000
  Ce  Ce24      1.0  0.50000  0.50000  0.38959  1.0000
  O   O53       1.0  0.85007  0.60036  0.28592  1.0000
  O   O54       1.0  0.64993  0.89964  0.49325  1.0000
  O   O55       1.0  0.60007  0.64964  0.49325  1.0000
  O   O56       1.0  0.89993  0.85036  0.28592  1.0000
  O   O57       1.0  0.89993  0.85036  0.37609  1.0000
  O   O58       1.0  0.60007  0.64964  0.40308  1.0000
  O   O59       1.0  0.64993  0.89964  0.40308  1.0000
  O   O60       1.0  0.85007  0.60036  0.37609  1.0000
  O   O61       1.0  0.55388  0.52287  0.33100  1.0000
  O   O62       1.0  0.94612  0.97713  0.44817  1.0000
  O   O63       1.0  0.80388  0.72713  0.44817  1.0000
  O   O64       1.0  0.69612  0.77287  0.33100  1.0000
  Sr  Sr17      1.0  0.25636  0.97596  0.56533  1.0000
  Sr  Sr18      1.0  0.49364  0.72596  0.56533  1.0000
  Ce  Ce25      1.0  0.00000  0.50000  0.50675  1.0000
  Ce  Ce26      1.0  0.25000  0.75000  0.50675  1.0000
  Ce  Ce27      1.0  0.25000  0.75000  0.62391  1.0000
  Ce  Ce28      1.0  0.00000  0.50000  0.62391  1.0000
  O   O65       1.0  0.35007  0.60036  0.52024  1.0000
  O   O66       1.0  0.39993  0.85036  0.52024  1.0000
  O   O67       1.0  0.39993  0.85036  0.61041  1.0000
  O   O68       1.0  0.10007  0.64964  0.63741  1.0000
  O   O69       1.0  0.14993  0.89964  0.63741  1.0000
  O   O70       1.0  0.35007  0.60036  0.61041  1.0000
  O   O71       1.0  0.05388  0.52287  0.56533  1.0000
  O   O72       1.0  0.19612  0.77287  0.56533  1.0000
  Sr  Sr19      1.0  0.75636  0.97596  0.56533  1.0000
  Sr  Sr20      1.0  0.99364  0.72596  0.56533  1.0000
  Ce  Ce29      1.0  0.50000  0.50000  0.50675  1.0000
  Ce  Ce30      1.0  0.75000  0.75000  0.50675  1.0000
  Ce  Ce31      1.0  0.75000  0.75000  0.62391  1.0000
  Ce  Ce32      1.0  0.50000  0.50000  0.62391  1.0000
  O   O73       1.0  0.85007  0.60036  0.52024  1.0000
  O   O74       1.0  0.89993  0.85036  0.52024  1.0000
  O   O75       1.0  0.89993  0.85036  0.61041  1.0000
  O   O76       1.0  0.60007  0.64964  0.63741  1.0000
  O   O77       1.0  0.64993  0.89964  0.63741  1.0000
  O   O78       1.0  0.85007  0.60036  0.61041  1.0000
  O   O79       1.0  0.55388  0.52287  0.56533  1.0000
  O   O80       1.0  0.69612  0.77287  0.56533  1.0000
